$=============================================================================================================
$ SOL 103 - Prueba de un bdf para calcular modos propios corriendo NASTRAN 
$=============================================================================================================
$
$------------------File Management Section-------------------------------------------
$
NASTRAN SYSTEM (359) = 0 
$ Esto obliga a que NASTRAN calcule las frecuencias propias por Lanczos y no por Householder
$ NASTRAN para modelos pequenos usa Householder directamente y hay que decirle que no
$
$------------------Control Deck------------------------------------------------------
$
$
ID            MSC . NASTRAN NORMAL MODES ANALYSIS
SOL           103
TIME          6000 $tiempo maximo que se le da a nastran para que haga sus calculos
$
CEND
$
$------------------Case control Deck------------------------------------------------------$
$
TITLE               = MODOS_PROPIOS_ALA_CBEAM
SUBTITLE            = (SOL103)
$
ECHO                = NONE
$es la informacion que aparecera en el archivo de resultados del bulk data, none es para que la info sea la minima
SEALL               = ALL
$aqui hay que poner siempre all
SPC                 = 100
$este es el id de la tarjeta spcadd que va al final
METHOD              = 200
$ este id ira en la tarjeta de calculo de autovalores
RESVEC              = NO
DISPLACEMENT(PLOT)  = ALL
VECTOR(SORT1,REAL)  = ALL
SPCFORCES(SORT1,REAL)=ALL
$
$
$ definicion de PARAMETROS y archivos de salida (que saque el hdf5 es importante)
$...1...|...2...|...3...|...4...|...5...|...6...|...7...|...8...|...9...|..10...
MDLPRM  HDF5    0
PARAM   PRTMAXIM YES
$PRTMAXIM controls the printout of the maximums of applied loads, single-point forces of constraint, multipoint forces of constraint, and displacements.
PARAM   POST    -1
PARAM   GRDPNT  0
$GRDPNT=0 coge el sistema de referencia basico pata definir masa y momentos de inercia
PARAM   USETSEL 128
$USETPRT controls the tabular printout of the degree-of-freedom sets
PARAM   USETPRT 10
$
$
$-------------------------------------------------------------------------------------------------------
BEGIN BULK
$-------------------------------------------------------------------------------------------------------
$
$ configuracion del analisis de modos propios
$...1...|...2...|...3...|...4...|...5...|...6...|...7...|...8...|...9...|..10...
EIGRL   200     0.0     150.0    15      0                       MASS
$----------------------------------------------------------------------------------------------------
$------------------ DEFINICION GEOMETRIA-------------------------------------------------------------
$----------------------------------------------------------------------------------------------------
$NODOS DEL EJE ELASTICO DEL ALA  
$(10XX SON LOS NODOS ORIGINALES;11XX SON LOS NODOS REFINADOS)
$...1...|...2...|...3...|...4...|...5...|...6...|...7...|...8...|...9...|..10...
$       ID              X       Y       Z               CONSTRAINS
GRID    1001            0.      0.      0.              
GRID   	1002            0.      0.5     0.		
GRID   	1003            0.      1.      0.		
GRID   	1004            0.      1.5     0.		
GRID   	1005            0.      2.      0.		
GRID   	1006            0.      2.5     0.		
GRID   	1007            0.      3.      0.		
GRID   	1008            0.      3.5     0.		
GRID   	1009            0.      4.      0.		
GRID   	1010            0.      4.5     0.		
GRID   	1011            0.      5.      0.	
$	
GRID    1101            0.      0.25    0.              
GRID   	1102            0.      0.75    0.		
GRID   	1103            0.      1.25    0.		
GRID   	1104            0.      1.75    0.		
GRID   	1105            0.      2.25    0.		
GRID   	1106            0.      2.75    0.		
GRID   	1107            0.      3.25    0.		
GRID   	1108            0.      3.75    0.		
GRID   	1109            0.      4.25    0.		
GRID   	1110            0.      4.75    0.		
$              		
$	
$NODOS DEL BORDE DE ATAQUE DEL ALA
$(20XX SON LOS NODOS ORIGINALES;21XX SON LOS NODOS REFINADOS)
$...1...|...2...|...3...|...4...|...5...|...6...|...7...|...8...|...9...|..10...
$       ID              X       Y       Z               CONSTRAINS
GRID    2001            -0.5    0.      0.              
GRID   	2002            -0.5    0.5     0.		
GRID   	2003            -0.5    1.      0.		
GRID   	2004            -0.5    1.5     0.		
GRID   	2005            -0.5    2.      0.		
GRID   	2006            -0.5    2.5     0.		
GRID   	2007            -0.5    3.      0.		
GRID   	2008            -0.5    3.5     0.		
GRID   	2009            -0.5    4.      0.		
GRID   	2010            -0.5    4.5     0.		
GRID   	2011            -0.5    5.      0.	
$	
GRID    2101            -0.5    0.25    0.              
GRID   	2102            -0.5    0.75    0.		
GRID   	2103            -0.5    1.25    0.		
GRID   	2104            -0.5    1.75    0.		
GRID   	2105            -0.5    2.25    0.		
GRID   	2106            -0.5    2.75    0.		
GRID   	2107            -0.5    3.25    0.		
GRID   	2108            -0.5    3.75    0.		
GRID   	2109            -0.5    4.25    0.		
GRID   	2110            -0.5    4.75    0.		
$
$
$NODOS DEL BORDE DE SALIDA DEL ALA
$(30XX SON LOS NODOS ORIGINALES;31XX SON LOS NODOS REFINADOS)
$...1...|...2...|...3...|...4...|...5...|...6...|...7...|...8...|...9...|..10...
$       ID              X       Y       Z               CONSTRAINS
GRID    3001            +0.5    0.      0.              
GRID   	3002            +0.5    0.5     0.		
GRID   	3003            +0.5    1.      0.		
GRID   	3004            +0.5    1.5     0.		
GRID   	3005            +0.5    2.      0.		
GRID   	3006            +0.5    2.5     0.		
GRID   	3007            +0.5    3.      0.		
GRID   	3008            +0.5    3.5     0.		
GRID   	3009            +0.5    4.      0.		
GRID   	3010            +0.5    4.5     0.		
GRID   	3011            +0.5    5.      0.	
$	
GRID    3101            +0.5    0.25    0.              
GRID   	3102            +0.5    0.75    0.		
GRID   	3103            +0.5    1.25    0.		
GRID   	3104            +0.5    1.75    0.		
GRID   	3105            +0.5    2.25    0.		
GRID   	3106            +0.5    2.75    0.		
GRID   	3107            +0.5    3.25    0.		
GRID   	3108            +0.5    3.75    0.		
GRID   	3109            +0.5    4.25    0.		
GRID   	3110            +0.5    4.75    0.		
$
$----------------------CBEAM---------------------------------------------------------------------
$
$...1...|...2...|...3...|...4...|...5...|...6...|...7...|...8...|...9...|..10...
$CBEAM..|EID....|PID....|NODO_1.|NODO_2.|..V1...|..V2...|..V3...|
CBEAM   9001    10001   1001    1101    -1.     1.      0.
CBEAM   9002    10002   1101    1002    -1.     1.      0.
CBEAM   9003    10003   1002    1102    -1.     1.      0.
CBEAM   9004    10004   1102    1003    -1.     1.      0.
CBEAM   9005    10005   1003    1103    -1.     1.      0.
CBEAM   9006    10006   1103    1004    -1.     1.      0.
CBEAM   9007    10007   1004    1104    -1.     1.      0.
CBEAM   9008    10008   1104    1005    -1.     1.      0.
CBEAM   9009    10009   1005    1105    -1.     1.      0.
CBEAM   9010    10010   1105    1006    -1.     1.      0.
CBEAM   9011    10011   1006    1106    -1.     1.      0.
CBEAM   9012    10012   1106    1007    -1.     1.      0.
CBEAM   9013    10013   1007    1107    -1.     1.      0.
CBEAM   9014    10014   1107    1008    -1.     1.      0.
CBEAM   9015    10015   1008    1108    -1.     1.      0.
CBEAM   9016    10016   1108    1009    -1.     1.      0.
CBEAM   9017    10017   1009    1109    -1.     1.      0.
CBEAM   9018    10018   1109    1010    -1.     1.      0.
CBEAM   9019    10019   1010    1110    -1.     1.      0.
CBEAM   9020    10020   1110    1011    -1.     1.      0.
$
$----------------------PBEAM---------------------------------------------------------------------
$...1...|...2...|...3...|...4...|...5...|...6...|...7...|...8...|...9...|..10...
$PBEAM..|PID....|.MID...|Area...|..I1...|..I2...|..I12..|..J....|
PBEAM   10001   11001   1.      1.      5.608-05        5.142-05
PBEAM   10002   11002   1.      1.      5.0-05          5.0-05
PBEAM   10003   11003   1.      1.      4.45-05         4.851-05
PBEAM   10004   11004   1.      1.      3.952-05        4.694-05
PBEAM   10005   11005   1.      1.      3.502-05        4.529-05
PBEAM   10006   11006   1.      1.      3.094-05        4.356-05
PBEAM   10007   11007   1.      1.      2.725-05        4.174-05
PBEAM   10008   11008   1.      1.      2.391-05        3.982-05
PBEAM   10009   11009   1.      1.      2.089-05        3.781-05
PBEAM   10010   11010   1.      1.      1.816-05        3.569-05
PBEAM   10011   11011   1.      1.      1.569-05        3.346-05
PBEAM   10012   11012   1.      1.      1.345-05        3.112-05
PBEAM   10013   11013   1.      1.      1.142-05        2.866-05
PBEAM   10014   11014   1.      1.      9.592-06        2.608-05
PBEAM   10015   11015   1.      1.      7.934-06        2.336-05
PBEAM   10016   11016   1.      1.      6.434-06        2.05-05
PBEAM   10017   11017   1.      1.      5.077-06        1.75-05
PBEAM   10018   11018   1.      1.      3.849-06        1.434-05
PBEAM   10019   11019   1.      1.      2.738-06        1.102-05
PBEAM   10020   11020   1.      1.      1.733-06        7.527-06
$
$----------------------MAT1---------------------------------------------------------------------
$...1...|...2...|...3...|...4...|...5...|...6...|...7...|...8...|...9...|..10...
$ MAT1..|MID....|E......|...G...|NU.....|
MAT1    11001   7.2+10          0.33
MAT1    11002   7.2+10          0.33
MAT1    11003   7.2+10          0.33
MAT1    11004   7.2+10          0.33
MAT1    11005   7.2+10          0.33
MAT1    11006   7.2+10          0.33
MAT1    11007   7.2+10          0.33
MAT1    11008   7.2+10          0.33
MAT1    11009   7.2+10          0.33
MAT1    11010   7.2+10          0.33
MAT1    11011   7.2+10          0.33
MAT1    11012   7.2+10          0.33
MAT1    11013   7.2+10          0.33
MAT1    11014   7.2+10          0.33
MAT1    11015   7.2+10          0.33
MAT1    11016   7.2+10          0.33
MAT1    11017   7.2+10          0.33
MAT1    11018   7.2+10          0.33
MAT1    11019   7.2+10          0.33
MAT1    11020   7.2+10          0.33
$
$----------------------RBAR---------------------------------------------------------------------
$ BORDE DE ATAQUE
$...1...|...2...|...3...|...4...|...5...|...6...|...7...|...8...|...9...|..10...
$.RBAR..|EID....|GA.....|...GB..|CNA....|..CNB..|..CMA..|..CMB..|
RBAR    20002   1002    2002    123456                  123456
RBAR    20003   1003    2003    123456                  123456
RBAR    20004   1004    2004    123456                  123456
RBAR    20005   1005    2005    123456                  123456
RBAR    20006   1006    2006    123456                  123456
RBAR    20007   1007    2007    123456                  123456
RBAR    20008   1008    2008    123456                  123456
RBAR    20009   1009    2009    123456                  123456
RBAR    20010   1010    2010    123456                  123456
RBAR    20011   1011    2011    123456                  123456
$
RBAR    20012   1102    2102    123456                  123456
RBAR    20013   1103    2103    123456                  123456
RBAR    20014   1104    2104    123456                  123456
RBAR    20015   1105    2105    123456                  123456
RBAR    20016   1106    2106    123456                  123456
RBAR    20017   1107    2107    123456                  123456
RBAR    20018   1108    2108    123456                  123456
RBAR    20019   1109    2109    123456                  123456
RBAR    20020   1110    2110    123456                  123456
$ BORDE DE SALIDA
$...1...|...2...|...3...|...4...|...5...|...6...|...7...|...8...|...9...|..10...
$.RBAR..|EID....|GA.....|...GB..|CNA....|..CNB..|..CMA..|..CMB..|
RBAR    30002   1002    3002    123456                  123456
RBAR    30003   1003    3003    123456                  123456
RBAR    30004   1004    3004    123456                  123456
RBAR    30005   1005    3005    123456                  123456
RBAR    30006   1006    3006    123456                  123456
RBAR    30007   1007    3007    123456                  123456
RBAR    30008   1008    3008    123456                  123456
RBAR    30009   1009    3009    123456                  123456
RBAR    30010   1010    3010    123456                  123456
RBAR    30011   1011    3011    123456                  123456
$
RBAR    30012   1102    3102    123456                  123456
RBAR    30013   1103    3103    123456                  123456
RBAR    30014   1104    3104    123456                  123456
RBAR    30015   1105    3105    123456                  123456
RBAR    30016   1106    3106    123456                  123456
RBAR    30017   1107    3107    123456                  123456
RBAR    30018   1108    3108    123456                  123456
RBAR    30019   1109    3109    123456                  123456
RBAR    30020   1110    3110    123456                  123456
$
$MASAS  BORDE DE  ATAQUE
$...1...|...2...|...3...|...4...|...5...|...6...|...7...|...8...|...9...|..10...
$       ID      NODO            MASA
CONM2   92001   2001            100.000
CONM2   92002   2002            87.605
CONM2   92003   2003            75.814
CONM2   92004   2004            64.559
CONM2   92005   2005            53.931
CONM2   92006   2006            43.782
CONM2   92007   2007            34.129
CONM2   92008   2008            24.947
CONM2   92009   2009            16.212
CONM2   92010   2010            7.903
CONM2   92011   2011            0.
$
$MASAS  BORDE DE  SALIDA
$...1...|...2...|...3...|...4...|...5...|...6...|...7...|...8...|...9...|..10...
$       ID      NODO            MASA
CONM2   93001   3001            100.000
CONM2   93002   3002            87.605
CONM2   93003   3003            75.814
CONM2   93004   3004            64.559
CONM2   93005   3005            53.931
CONM2   93006   3006            43.782
CONM2   93007   3007            34.129
CONM2   93008   3008            24.947
CONM2   93009   3009            16.212
CONM2   93010   3010            7.903
CONM2   93011   3011            0.
$-------------------------------------------------------------------------------------------------
$----------DEFINICION DE CONDICIONES DE CONTORNO
$-------------------------------------------------------------------------------------------------
$CONJUNTO DE CONDICIONES DE CONTORNO
$...1...|...2...|...3...|...4...|...5...|...6...|...7...|...8...|...9...|..10...
SPCADD  100     5001       
$CONDICION DE CONTORNO DE EMPOTRAMIENTO
$...1...|...2...|...3...|...4...|...5...|...6...|...7...|...8...|...9...|..10...
SPC1    5001    123456  1001    2001    3001
$ -------------------------------------------------------------------------------
$--------------------------------------------------------------------------------------------------
$----------------------PLOTEL---------------------------------------------------------------------
$--------------------------------------------------------------------------------------------------
$EJE ELÁSTICO - BORDE DE ATAQUE
$...1...|...2...|...3...|...4...|...5...|...6...|...7...|...8...|...9...|..10...
$.PLOTEL|..EID..|..G1...|..G2...|
PLOTEL  40000   1002    2002
PLOTEL  40001   1003    2003
PLOTEL  40002   1004    2004
PLOTEL  40003   1005    2005
PLOTEL  40004   1006    2006
PLOTEL  40005   1007    2007
PLOTEL  40006   1008    2008
PLOTEL  40007   1009    2009
PLOTEL  40008   1010    2010
PLOTEL  40009   1011    2011
$
PLOTEL  40010   1101    2101
PLOTEL  40011   1102    2102
PLOTEL  40012   1103    2103
PLOTEL  40013   1104    2104
PLOTEL  40014   1105    2105
PLOTEL  40015   1106    2106
PLOTEL  40016   1107    2107
PLOTEL  40017   1108    2108
PLOTEL  40018   1109    2109
PLOTEL  40019   1110    2110
$EJE ELÁSTICO - BORDE DE SALIDA
$...1...|...2...|...3...|...4...|...5...|...6...|...7...|...8...|...9...|..10...
$.PLOTEL|..EID..|..G1...|..G2...|
PLOTEL  40020   1002    3002
PLOTEL  40021   1003    3003
PLOTEL  40022   1004    3004
PLOTEL  40023   1005    3005
PLOTEL  40024   1006    3006
PLOTEL  40025   1007    3007
PLOTEL  40026   1008    3008
PLOTEL  40027   1009    3009
PLOTEL  40028   1010    3010
PLOTEL  40029   1011    3011
$
PLOTEL  40030   1101    3101
PLOTEL  40031   1102    3102
PLOTEL  40032   1103    3103
PLOTEL  40033   1104    3104
PLOTEL  40034   1105    3105
PLOTEL  40035   1106    3106
PLOTEL  40036   1107    3107
PLOTEL  40037   1108    3108
PLOTEL  40038   1109    3109
PLOTEL  40039   1110    3110
$
$BORDE DE ATAQUE
$...1...|...2...|...3...|...4...|...5...|...6...|...7...|...8...|...9...|..10...
$.PLOTEL|..EID..|..G1...|..G2...|
PLOTEL  40040   2001    2101
PLOTEL  40041   2101    2002
PLOTEL  40042   2002    2102
PLOTEL  40043   2102    2003
PLOTEL  40044   2003    2103
PLOTEL  40045   2103    2004
PLOTEL  40046   2004    2105
PLOTEL  40047   2105    2006
PLOTEL  40048   2006    2106
PLOTEL  40049   2106    2007
PLOTEL  40050   2007    2107
PLOTEL  40051   2107    2008
PLOTEL  40052   2008    2108
PLOTEL  40053   2108    2009
PLOTEL  40054   2009    2109
PLOTEL  40055   2109    2010
PLOTEL  40056   2010    2110
PLOTEL  40057   2110    2011
$BORDE DE SALIDA
$...1...|...2...|...3...|...4...|...5...|...6...|...7...|...8...|...9...|..10...
$.PLOTEL|..EID..|..G1...|..G2...|
PLOTEL  40058   3001    3101
PLOTEL  40059   3101    3002
PLOTEL  40060   3002    3102
PLOTEL  40061   3102    3003
PLOTEL  40062   3003    3103
PLOTEL  40063   3103    3004
PLOTEL  40064   3004    3105
PLOTEL  40065   3105    3006
PLOTEL  40066   3006    3106
PLOTEL  40067   3106    3007
PLOTEL  40068   3007    3107
PLOTEL  40069   3107    3008
PLOTEL  40070   3008    3108
PLOTEL  40071   3108    3009
PLOTEL  40072   3009    3109
PLOTEL  40073   3109    3010
PLOTEL  40074   3010    3110
PLOTEL  40075   3110    3011
ENDDATA