$=============================================================================================================
$ SOL 103 - Prueba de un bdf para calcular modos propios corriendo NASTRAN 
$=============================================================================================================
$
$------------------File Management Section-------------------------------------------
$
NASTRAN SYSTEM (359) = 0 
$ Esto obliga a que NASTRAN calcule las frecuencias propias por Lanczos y no por Householder
$ NASTRAN para modelos pequenos usa Householder directamente y hay que decirle que no
$
$------------------Control Deck------------------------------------------------------
$
$
ID            MSC . NASTRAN NORMAL MODES ANALYSIS
SOL           103
TIME          6000 $tiempo maximo que se le da a nastran para que haga sus calculos
$
CEND
$
$------------------Case control Deck------------------------------------------------------$
$
TITLE               = MODOS_PROPIOS_ALA_CBEAM
SUBTITLE            = (SOL103)
$
ECHO                = NONE
$es la informacion que aparecera en el archivo de resultados del bulk data, none es para que la info sea la minima
SEALL               = ALL
$aqui hay que poner siempre all
SPC                 = 100
$este es el id de la tarjeta spcadd que va al final
METHOD              = 200
$ este id ira en la tarjeta de calculo de autovalores
RESVEC              = NO
DISPLACEMENT(PLOT)  = ALL
VECTOR(SORT1,REAL)  = ALL
SPCFORCES(SORT1,REAL)=ALL
$
$-------------------------------------------------------------------------------------------------------
BEGIN BULK
$-------------------------------------------------------------------------------------------------------
$ definicion de PARAMETROS y archivos de salida (que saque el hdf5 es importante)
$...1...|...2...|...3...|...4...|...5...|...6...|...7...|...8...|...9...|..10...
MDLPRM  HDF5    0
PARAM   PRTMAXIM YES
$PRTMAXIM controls the printout of the maximums of applied loads, single-point forces of constraint, multipoint forces of constraint, and displacements.
PARAM   POST    -1
PARAM   GRDPNT  0
$GRDPNT=0 coge el sistema de referencia basico pata definir masa y momentos de inercia
PARAM   USETSEL 128
$USETPRT controls the tabular printout of the degree-of-freedom sets
PARAM   USETPRT 10
$
$
$
$ configuracion del analisis de modos propios
$...1...|...2...|...3...|...4...|...5...|...6...|...7...|...8...|...9...|..10...
EIGRL   200     0.0     200.0           0                       MASS
$----------------------------------------------------------------------------------------------------
$------------------ DEFINICION GEOMETRIA-------------------------------------------------------------
$----------------------------------------------------------------------------------------------------
$NODOS DEL EJE ELASTICO DEL ALA  
$(10XX SON LOS NODOS ORIGINALES;11XX SON LOS NODOS REFINADOS)
$...1...|...2...|...3...|...4...|...5...|...6...|...7...|...8...|...9...|..10...
$       ID              X       Y       Z               CONSTRAINS
GRID    1001            0.      0.      0.              
GRID   	1002            0.      0.5     0.		
GRID   	1003            0.      1.      0.		
GRID   	1004            0.      1.5     0.		
GRID   	1005            0.      2.      0.		
GRID   	1006            0.      2.5     0.		
GRID   	1007            0.      3.      0.		
GRID   	1008            0.      3.5     0.		
GRID   	1009            0.      4.      0.		
GRID   	1010            0.      4.5     0.		
GRID   	1011            0.      5.      0.	
$	
GRID    1101            0.      0.25    0.              
GRID   	1102            0.      0.75    0.		
GRID   	1103            0.      1.25    0.		
GRID   	1104            0.      1.75    0.		
GRID   	1105            0.      2.25    0.		
GRID   	1106            0.      2.75    0.		
GRID   	1107            0.      3.25    0.		
GRID   	1108            0.      3.75    0.		
GRID   	1109            0.      4.25    0.		
GRID   	1110            0.      4.75    0.		
$
GRID    1201            0.      0.125    0.              
GRID   	1202            0.      0.375    0.		
GRID   	1203            0.      0.625    0.		
GRID   	1204            0.      0.875    0.		
GRID   	1205            0.      1.125    0.		
GRID   	1206            0.      1.375    0.		
GRID   	1207            0.      1.625    0.		
GRID   	1208            0.      1.875    0.		
GRID   	1209            0.      2.125    0.		
GRID   	1210            0.      2.375    0.
GRID   	1211            0.      2.625    0.
GRID   	1212            0.      2.875    0.
GRID   	1213            0.      3.125    0.
GRID   	1214            0.      3.375    0.
GRID   	1215            0.      3.625    0.
GRID   	1216            0.      3.875    0. 
GRID   	1217            0.      4.125    0. 
GRID   	1218            0.      4.375    0. 
GRID   	1219            0.      4.625    0.
GRID   	1220            0.      4.875    0.               		
$	
$NODOS DEL BORDE DE ATAQUE DEL ALA
$(20XX SON LOS NODOS ORIGINALES;21XX SON LOS NODOS REFINADOS)
$...1...|...2...|...3...|...4...|...5...|...6...|...7...|...8...|...9...|..10...
$       ID              X       Y       Z               CONSTRAINS
GRID    2001            -0.5    0.      0.              
GRID   	2002            -0.5    0.5     0.		
GRID   	2003            -0.5    1.      0.		
GRID   	2004            -0.5    1.5     0.		
GRID   	2005            -0.5    2.      0.		
GRID   	2006            -0.5    2.5     0.		
GRID   	2007            -0.5    3.      0.		
GRID   	2008            -0.5    3.5     0.		
GRID   	2009            -0.5    4.      0.		
GRID   	2010            -0.5    4.5     0.		
GRID   	2011            -0.5    5.      0.	
$	
GRID    2101            -0.5    0.25    0.              
GRID   	2102            -0.5    0.75    0.		
GRID   	2103            -0.5    1.25    0.		
GRID   	2104            -0.5    1.75    0.		
GRID   	2105            -0.5    2.25    0.		
GRID   	2106            -0.5    2.75    0.		
GRID   	2107            -0.5    3.25    0.		
GRID   	2108            -0.5    3.75    0.		
GRID   	2109            -0.5    4.25    0.		
GRID   	2110            -0.5    4.75    0.		
$
GRID    2201            -0.5    0.125   0.              
GRID   	2202            -0.5    0.375   0.		
GRID   	2203            -0.5    0.625   0.		
GRID   	2204            -0.5    0.875   0.		
GRID   	2205            -0.5    1.125   0.		
GRID   	2206            -0.5    1.375   0.		
GRID   	2207            -0.5    1.625   0.		
GRID   	2208            -0.5    1.875   0.		
GRID   	2209            -0.5    2.125   0.		
GRID   	2210            -0.5    2.375   0.
GRID   	2211            -0.5    2.625   0.
GRID   	2212            -0.5    2.875   0.
GRID   	2213            -0.5    3.125   0.
GRID   	2214            -0.5    3.375   0.
GRID   	2215            -0.5    3.625   0.
GRID   	2216            -0.5    3.875   0. 
GRID   	2217            -0.5    4.125   0. 
GRID   	2218            -0.5    4.375   0. 
GRID   	2219            -0.5    4.625   0.
GRID   	2220            -0.5    4.875   0.    
$
$NODOS DEL BORDE DE SALIDA DEL ALA
$(30XX SON LOS NODOS ORIGINALES;31XX SON LOS NODOS REFINADOS)
$...1...|...2...|...3...|...4...|...5...|...6...|...7...|...8...|...9...|..10...
$       ID              X       Y       Z               CONSTRAINS
GRID    3001            +0.5    0.      0.              
GRID   	3002            +0.5    0.5     0.		
GRID   	3003            +0.5    1.      0.		
GRID   	3004            +0.5    1.5     0.		
GRID   	3005            +0.5    2.      0.		
GRID   	3006            +0.5    2.5     0.		
GRID   	3007            +0.5    3.      0.		
GRID   	3008            +0.5    3.5     0.		
GRID   	3009            +0.5    4.      0.		
GRID   	3010            +0.5    4.5     0.		
GRID   	3011            +0.5    5.      0.	
$	
GRID    3101            +0.5    0.25    0.              
GRID   	3102            +0.5    0.75    0.		
GRID   	3103            +0.5    1.25    0.		
GRID   	3104            +0.5    1.75    0.		
GRID   	3105            +0.5    2.25    0.		
GRID   	3106            +0.5    2.75    0.		
GRID   	3107            +0.5    3.25    0.		
GRID   	3108            +0.5    3.75    0.		
GRID   	3109            +0.5    4.25    0.		
GRID   	3110            +0.5    4.75    0.		
$
GRID    3201            +0.5    0.125   0.              
GRID   	3202            +0.5    0.375   0.		
GRID   	3203            +0.5    0.625   0.		
GRID   	3204            +0.5    0.875   0.		
GRID   	3205            +0.5    1.125   0.		
GRID   	3206            +0.5    1.375   0.		
GRID   	3207            +0.5    1.625   0.		
GRID   	3208            +0.5    1.875   0.		
GRID   	3209            +0.5    2.125   0.		
GRID   	3210            +0.5    2.375   0.
GRID   	3211            +0.5    2.625   0.
GRID   	3212            +0.5    2.875   0.
GRID   	3213            +0.5    3.125   0.
GRID   	3214            +0.5    3.375   0.
GRID   	3215            +0.5    3.625   0.
GRID   	3216            +0.5    3.875   0. 
GRID   	3217            +0.5    4.125   0. 
GRID   	3218            +0.5    4.375   0. 
GRID   	3219            +0.5    4.625   0.
GRID   	3220            +0.5    4.875   0. 
$----------------------CBEAM---------------------------------------------------------------------
$
$...1...|...2...|...3...|...4...|...5...|...6...|...7...|...8...|...9...|..10...
$CBEAM..|EID....|PID....|NODO_1.|NODO_2.|..V1...|..V2...|..V3...|
CBEAM   9001    10001   1001    1201    -1.     1.      0.
CBEAM   9002    10002   1201    1101    -1.     1.      0.
CBEAM   9003    10003   1101    1202    -1.     1.      0.
CBEAM   9004    10004   1202    1002    -1.     1.      0.
CBEAM   9005    10005   1002    1203    -1.     1.      0.
CBEAM   9006    10006   1203    1102    -1.     1.      0.
CBEAM   9007    10007   1102    1204    -1.     1.      0.
CBEAM   9008    10008   1204    1003    -1.     1.      0.
CBEAM   9009    10009   1003    1205    -1.     1.      0.
CBEAM   9010    10010   1205    1103    -1.     1.      0.
CBEAM   9011    10011   1103    1206    -1.     1.      0.
CBEAM   9012    10012   1206    1004    -1.     1.      0.
CBEAM   9013    10013   1004    1207    -1.     1.      0.
CBEAM   9014    10014   1207    1104    -1.     1.      0.
CBEAM   9015    10015   1104    1208    -1.     1.      0.
CBEAM   9016    10016   1208    1005    -1.     1.      0.
CBEAM   9017    10017   1005    1209    -1.     1.      0.
CBEAM   9018    10018   1209    1105    -1.     1.      0.
CBEAM   9019    10019   1105    1210    -1.     1.      0.
CBEAM   9020    10020   1210    1006    -1.     1.      0.
$ ... 20 like lines cut
$
$----------------------PBEAM---------------------------------------------------------------------
$...1...|...2...|...3...|...4...|...5...|...6...|...7...|...8...|...9...|..10...
$PBEAM..|PID....|.MID...|Area...|..I1...|..I2...|..I12..|..J....|
PBEAM   10001   11000   1.      1.      5.608-05        5.142-05
PBEAM   10002   11000   1.      1.      5.296-05        5.072-05
PBEAM   10003   11000   1.      1.      5.0-05          5.0-05
PBEAM   10004   11000   1.      1.      4.718-05        4.926-05
PBEAM   10005   11000   1.      1.      4.45-05         4.851-05
PBEAM   10006   11000   1.      1.      4.195-05        4.733-05
PBEAM   10007   11000   1.      1.      3.952-05        4.694-05
PBEAM   10008   11000   1.      1.      3.721-05        4.613-05
PBEAM   10009   11000   1.      1.      3.502-05        4.529-05
PBEAM   10010   11000   1.      1.      3.293-05        4.444-05
PBEAM   10011   11000   1.      1.      3.094-05        4.356-05
PBEAM   10012   11000   1.      1.      2.905-05        4.266-05
PBEAM   10013   11000   1.      1.      2.725-05        4.174-05
PBEAM   10014   11000   1.      1.      2.554-05        4.079-05
PBEAM   10015   11000   1.      1.      2.391-05        3.982-05
PBEAM   10016   11000   1.      1.      2.236-05        3.883-05
PBEAM   10017   11000   1.      1.      2.089-05        3.781-05
PBEAM   10018   11000   1.      1.      1.949-05        3.676-05
PBEAM   10019   11000   1.      1.      1.816-05        3.569-05
PBEAM   10020   11000   1.      1.      1.689-05        3.459-05
$ ... 20 like lines cut
$
$----------------------MAT1---------------------------------------------------------------------
$...1...|...2...|...3...|...4...|...5...|...6...|...7...|...8...|...9...|..10...
$ MAT1..|MID....|E......|...G...|NU.....|
MAT1    11000   7.2+10          0.33
$
$----------------------RBAR---------------------------------------------------------------------
$ BORDE DE ATAQUE
$...1...|...2...|...3...|...4...|...5...|...6...|...7...|...8...|...9...|..10...
$.RBAR..|EID....|GA.....|...GB..|CNA....|..CNB..|..CMA..|..CMB..|
RBAR    20002   1002    2002    123456                  123456
RBAR    20003   1003    2003    123456                  123456
RBAR    20004   1004    2004    123456                  123456
RBAR    20005   1005    2005    123456                  123456
RBAR    20006   1006    2006    123456                  123456
RBAR    20007   1007    2007    123456                  123456
RBAR    20008   1008    2008    123456                  123456
RBAR    20009   1009    2009    123456                  123456
RBAR    20010   1010    2010    123456                  123456
RBAR    20011   1011    2011    123456                  123456
$
RBAR    20012   1101    2101    123456                  123456
RBAR    20013   1102    2102    123456                  123456
RBAR    20014   1103    2103    123456                  123456
RBAR    20015   1104    2104    123456                  123456
RBAR    20016   1105    2105    123456                  123456
RBAR    20017   1106    2106    123456                  123456
RBAR    20018   1107    2107    123456                  123456
RBAR    20019   1108    2108    123456                  123456
RBAR    20020   1109    2109    123456                  123456
RBAR    20021   1110    2110    123456                  123456
$
RBAR    20022   1201    2201    123456                  123456
RBAR    20023   1202    2202    123456                  123456
RBAR    20024   1203    2203    123456                  123456
RBAR    20025   1204    2204    123456                  123456
RBAR    20026   1205    2205    123456                  123456
RBAR    20027   1206    2206    123456                  123456
RBAR    20028   1207    2207    123456                  123456
RBAR    20029   1208    2208    123456                  123456
RBAR    20030   1209    2209    123456                  123456
RBAR    20031   1210    2210    123456                  123456
RBAR    20032   1211    2211    123456                  123456
RBAR    20033   1212    2212    123456                  123456
RBAR    20034   1213    2213    123456                  123456
RBAR    20035   1214    2214    123456                  123456
RBAR    20036   1215    2215    123456                  123456
RBAR    20037   1216    2216    123456                  123456
RBAR    20038   1217    2217    123456                  123456
RBAR    20039   1218    2218    123456                  123456
RBAR    20040   1219    2219    123456                  123456
RBAR    20041   1220    2220    123456                  123456
$
$ BORDE DE SALIDA
$...1...|...2...|...3...|...4...|...5...|...6...|...7...|...8...|...9...|..10...
$.RBAR..|EID....|GA.....|...GB..|CNA....|..CNB..|..CMA..|..CMB..|
RBAR    30002   1002    3002    123456                  123456
RBAR    30003   1003    3003    123456                  123456
RBAR    30004   1004    3004    123456                  123456
RBAR    30005   1005    3005    123456                  123456
RBAR    30006   1006    3006    123456                  123456
RBAR    30007   1007    3007    123456                  123456
RBAR    30008   1008    3008    123456                  123456
RBAR    30009   1009    3009    123456                  123456
RBAR    30010   1010    3010    123456                  123456
RBAR    30011   1011    3011    123456                  123456
$
RBAR    30012   1101    3101    123456                  123456
RBAR    30013   1102    3102    123456                  123456
RBAR    30014   1103    3103    123456                  123456
RBAR    30015   1104    3104    123456                  123456
RBAR    30016   1105    3105    123456                  123456
RBAR    30017   1106    3106    123456                  123456
RBAR    30018   1107    3107    123456                  123456
RBAR    30019   1108    3108    123456                  123456
RBAR    30020   1109    3109    123456                  123456
RBAR    30021   1110    3110    123456                  123456
$
RBAR    30022   1201    3201    123456                  123456
RBAR    30023   1202    3202    123456                  123456
RBAR    30024   1203    3203    123456                  123456
RBAR    30025   1204    3204    123456                  123456
RBAR    30026   1205    3205    123456                  123456
RBAR    30027   1206    3206    123456                  123456
RBAR    30028   1207    3207    123456                  123456
RBAR    30029   1208    3208    123456                  123456
RBAR    30030   1209    3209    123456                  123456
RBAR    30031   1210    3210    123456                  123456
RBAR    30032   1211    3211    123456                  123456
RBAR    30033   1212    3212    123456                  123456
RBAR    30034   1213    3213    123456                  123456
RBAR    30035   1214    3214    123456                  123456
RBAR    30036   1215    3215    123456                  123456
RBAR    30037   1216    3216    123456                  123456
RBAR    30038   1217    3217    123456                  123456
RBAR    30039   1218    3218    123456                  123456
RBAR    30040   1219    3219    123456                  123456
RBAR    30041   1220    3220    123456                  123456
$
$MASAS  BORDE DE  ATAQUE
$...1...|...2...|...3...|...4...|...5...|...6...|...7...|...8...|...9...|..10...
$       ID      NODO            MASA
CONM2   92001   2001            100.000
CONM2   92002   2002            87.605
CONM2   92003   2003            75.814
CONM2   92004   2004            64.559
CONM2   92005   2005            53.931
CONM2   92006   2006            43.782
CONM2   92007   2007            34.129
CONM2   92008   2008            24.947
CONM2   92009   2009            16.212
CONM2   92010   2010            7.903
CONM2   92011   2011            0.
$
$MASAS  BORDE DE  SALIDA
$...1...|...2...|...3...|...4...|...5...|...6...|...7...|...8...|...9...|..10...
$       ID      NODO            MASA
CONM2   93001   3001            100.000
CONM2   93002   3002            87.605
CONM2   93003   3003            75.814
CONM2   93004   3004            64.559
CONM2   93005   3005            53.931
CONM2   93006   3006            43.782
CONM2   93007   3007            34.129
CONM2   93008   3008            24.947
CONM2   93009   3009            16.212
CONM2   93010   3010            7.903
CONM2   93011   3011            0.
$-------------------------------------------------------------------------------------------------
$----------DEFINICION DE CONDICIONES DE CONTORNO
$-------------------------------------------------------------------------------------------------
$CONJUNTO DE CONDICIONES DE CONTORNO
$...1...|...2...|...3...|...4...|...5...|...6...|...7...|...8...|...9...|..10...
SPCADD  100     5001       
$CONDICION DE CONTORNO DE EMPOTRAMIENTO
$...1...|...2...|...3...|...4...|...5...|...6...|...7...|...8...|...9...|..10...
SPC1    5001    123456  1001    2001    3001
$ -------------------------------------------------------------------------------
$--------------------------------------------------------------------------------------------------
$----------------------PLOTEL---------------------------------------------------------------------
$--------------------------------------------------------------------------------------------------
$EJE ELÁSTICO - BORDE DE ATAQUE
$...1...|...2...|...3...|...4...|...5...|...6...|...7...|...8...|...9...|..10...
$.PLOTEL|..EID..|..G1...|..G2...|
PLOTEL  40000   1002    2002
PLOTEL  40001   1003    2003
PLOTEL  40002   1004    2004
PLOTEL  40003   1005    2005
PLOTEL  40004   1006    2006
PLOTEL  40005   1007    2007
PLOTEL  40006   1008    2008
PLOTEL  40007   1009    2009
PLOTEL  40008   1010    2010
PLOTEL  40009   1011    2011
$
PLOTEL  40010   1101    2101
PLOTEL  40011   1102    2102
PLOTEL  40012   1103    2103
PLOTEL  40013   1104    2104
PLOTEL  40014   1105    2105
PLOTEL  40015   1106    2106
PLOTEL  40016   1107    2107
PLOTEL  40017   1108    2108
PLOTEL  40018   1109    2109
PLOTEL  40019   1110    2110
$
PLOTEL  40020   1201    2201
PLOTEL  40021   1202    2202
PLOTEL  40022   1203    2203
PLOTEL  40023   1204    2204
PLOTEL  40024   1205    2205
PLOTEL  40025   1206    2206
PLOTEL  40026   1207    2207
PLOTEL  40027   1208    2208
PLOTEL  40028   1209    2209
PLOTEL  40029   1210    2210
PLOTEL  40030   1211    2211
PLOTEL  40031   1212    2212
PLOTEL  40032   1213    2213
PLOTEL  40033   1214    2214
PLOTEL  40034   1215    2215
PLOTEL  40035   1216    2216
PLOTEL  40036   1217    2217
PLOTEL  40037   1218    2218
PLOTEL  40038   1219    2219
PLOTEL  40039   1220    2220
$
$
$EJE ELÁSTICO - BORDE DE SALIDA
$...1...|...2...|...3...|...4...|...5...|...6...|...7...|...8...|...9...|..10...
$.PLOTEL|..EID..|..G1...|..G2...|
PLOTEL  40040   1002    3002
PLOTEL  40041   1003    3003
PLOTEL  40042   1004    3004
PLOTEL  40043   1005    3005
PLOTEL  40044   1006    3006
PLOTEL  40045   1007    3007
PLOTEL  40046   1008    3008
PLOTEL  40047   1009    3009
PLOTEL  40048   1010    3010
PLOTEL  40049   1011    3011
$
PLOTEL  40050   1101    3101
PLOTEL  40051   1102    3102
PLOTEL  40052   1103    3103
PLOTEL  40053   1104    3104
PLOTEL  40054   1105    3105
PLOTEL  40055   1106    3106
PLOTEL  40056   1107    3107
PLOTEL  40057   1108    3108
PLOTEL  40058   1109    3109
PLOTEL  40059   1110    3110
$
PLOTEL  40060   1201    3201
PLOTEL  40061   1202    3202
PLOTEL  40062   1203    3203
PLOTEL  40063   1204    3204
PLOTEL  40064   1205    3205
PLOTEL  40065   1206    3206
PLOTEL  40066   1207    3207
PLOTEL  40067   1208    3208
PLOTEL  40068   1209    3209
PLOTEL  40069   1210    3210
PLOTEL  40070   1211    3211
PLOTEL  40071   1212    3212
PLOTEL  40072   1213    3213
PLOTEL  40073   1214    3214
PLOTEL  40074   1215    3215
PLOTEL  40075   1216    3216
PLOTEL  40076   1217    3217
PLOTEL  40077   1218    3218
PLOTEL  40078   1219    3219
PLOTEL  40079   1220    3220
$BORDE DE ATAQUE
$...1...|...2...|...3...|...4...|...5...|...6...|...7...|...8...|...9...|..10...
$.PLOTEL|..EID..|..G1...|..G2...|
PLOTEL  40080   2001    2201
PLOTEL  40081   2201    2101
PLOTEL  40082   2101    2202
PLOTEL  40083   2202    2002
PLOTEL  40084   2002    2203
PLOTEL  40085   2203    2102
PLOTEL  40086   2102    2204
PLOTEL  40087   2204    2003
PLOTEL  40088   2003    2205
PLOTEL  40089   2205    2103
PLOTEL  40090   2103    2206
PLOTEL  40091   2206    2004
PLOTEL  40092   2004    2207
PLOTEL  40093   2207    2104
PLOTEL  40094   2104    2208
PLOTEL  40095   2208    2005
PLOTEL  40096   2005    2209
PLOTEL  40097   2209    2105
PLOTEL  40098   2105    2210
PLOTEL  40099   2210    2006
$ ... 20 like lines cut
$
$BORDE DE SALIDA
$...1...|...2...|...3...|...4...|...5...|...6...|...7...|...8...|...9...|..10...
$.PLOTEL|..EID..|..G1...|..G2...|
PLOTEL  40120   3001    3201
PLOTEL  40121   3201    3101
PLOTEL  40122   3101    3202
PLOTEL  40123   3202    3002
PLOTEL  40124   3002    3203
PLOTEL  40125   3203    3102
PLOTEL  40126   3102    3204
PLOTEL  40127   3204    3003
PLOTEL  40128   3003    3205
PLOTEL  40129   3205    3103
PLOTEL  40130   3103    3206
PLOTEL  40131   3206    3004
PLOTEL  40132   3004    3207
PLOTEL  40133   3207    3104
PLOTEL  40134   3104    3208
PLOTEL  40135   3208    3005
PLOTEL  40136   3005    3209
PLOTEL  40137   3209    3105
PLOTEL  40138   3105    3210
PLOTEL  40139   3210    3006
$ ... 20 like lines cut
$
ENDDATA